NetworkConfigData/References/PSLF/NETS-NYPS 68 Bus System.EPC
title
!
comments
!
solution parameters
tap    1    tcul  enabled/disabled
phas   1    ps    enabled/disabled
area   1    area  enabled/disabled
svd    1    svd   enabled/disabled
dctap  1    dc    enabled/disabled
gcd    0    gcd   enabled/disabled
jump  0.000200    jumper threshold
toler   0.1000    newton tolerance
sbase 100.0000    system mva base
!
bus data  [68]               ty  vsched   volt     angle    ar zone  vmax   vmin   date_in date_out pid L own st  latitude  longitude island    sdmon   vmax1      vmin1      dvmax
      1 "1           " 138.0000 :  2 1.04500 1.045000  -8.95704   1    1 1.1000 0.9000   400101   391231   0 0   1 0    0.06500    0.15000 0    0.00000    0.00000    0.00000
      2 "2           " 138.0000 :  2 0.98000 0.980000  -0.98425   1    1 1.1000 0.9000   400101   391231   0 0   1 0    0.25500    0.11500 0    0.00000    0.00000    0.00000
      3 "3           " 138.0000 :  2 0.98300 0.983000   1.61211   1    1 1.1000 0.9000   400101   391231   0 0   1 0    0.25500    0.09000 0    0.00000    0.00000    0.00000
      4 "4           " 138.0000 :  2 0.99700 0.997000   1.66755   1    1 1.1000 0.9000   400101   391231   0 0   1 0    0.19000    0.06000 0    0.00000    0.00000    0.00000
      5 "5           " 138.0000 :  2 1.01100 1.011000  -0.62844   1    1 1.1000 0.9000   400101   391231   0 0   1 0    0.24000    0.06000 0    0.00000    0.00000    0.00000
      6 "6           " 138.0000 :  2 1.05000 1.050000   3.84169   1    1 1.1000 0.9000   400101   391231   0 0   1 0    0.19000    0.03000 0    0.00000    0.00000    0.00000
      7 "7           " 138.0000 :  2 1.06300 1.063000   6.02995   1    1 1.1000 0.9000   400101   391231   0 0   1 0    0.25500    0.03000 0    0.00000    0.00000    0.00000
      8 "8           " 138.0000 :  2 1.03000 1.030000  -2.84176   1    1 1.1000 0.9000   400101   391231   0 0   1 0    0.06500    0.11000 0    0.00000    0.00000    0.00000
      9 "9           " 138.0000 :  2 1.02500 1.025000   2.65158   1    1 1.1000 0.9000   400101   391231   0 0   1 0    0.07000    0.02500 0    0.00000    0.00000    0.00000
     10 "10          " 138.0000 :  2 1.01000 1.010000  -9.64460   2    1 1.1000 0.9000   400101   391231   0 0   1 0    0.09500    0.28000 0    0.00000    0.00000    0.00000
     11 "11          " 138.0000 :  2 1.00000 1.000000  -7.22523   2    1 1.1000 0.9000   400101   391231   0 0   1 0    0.11000    0.23000 0    0.00000    0.00000    0.00000
     12 "12          " 138.0000 :  2 1.01560 1.015600 -22.63217   2    1 1.1000 0.9000   400101   391231   0 0   1 0    0.20500    0.23000 0    0.00000    0.00000    0.00000
     13 "13          " 138.0000 :  2 1.01100 1.011000 -28.65486   2    1 1.1000 0.9000   400101   391231   0 0   1 0    0.23500    0.21000 0    0.00000    0.00000    0.00000
     14 "14          " 138.0000 :  2 1.00000 1.000000  10.96156   3    1 1.1000 0.9000   400101   391231   0 0   1 0    0.06500    0.33000 0    0.00000    0.00000    0.00000
     15 "15          " 138.0000 :  2 1.00000 1.000000   0.01654   4    1 1.1000 0.9000   400101   391231   0 0   1 0    0.14000    0.33500 0    0.00000    0.00000    0.00000
     16 "16          " 138.0000 :  0 1.00000 1.000000   0.00000   5    1 1.1000 0.9000   400101   391231   0 0   1 0    0.24000    0.33500 0    0.00000    0.00000    0.00000
     17 "17          " 138.0000 :  1 0.949922 0.949922 -36.02782   2    1 1.1000 0.9000   400101   391231   0 0   1 0    0.21000    0.20000 0    0.00000    0.00000    0.00000
     18 "18          " 138.0000 :  1 1.002328 1.002328  -5.80548   5    1 1.1000 0.9000   400101   391231   0 0   1 0    0.22500    0.33000 0    0.00000    0.00000    0.00000
     19 "19          " 138.0000 :  1 0.931977 0.931977  -4.26414   1    1 1.1000 0.9000   400101   391231   0 0   1 0    0.16500    0.06000 0    0.00000    0.00000    0.00000
     20 "20          " 138.0000 :  1 0.980613 0.980613  -5.87523   1    1 1.1000 0.9000   400101   391231   0 0   1 0    0.22500    0.07500 0    0.00000    0.00000    0.00000
     21 "21          " 138.0000 :  1 0.960244 0.960244  -7.05469   1    1 1.1000 0.9000   400101   391231   0 0   1 0    0.12000    0.47500 0    0.00000    0.00000    0.00000
     22 "22          " 138.0000 :  1 0.993681 0.993681  -1.80177   1    1 1.1000 0.9000   400101   391231   0 0   1 0    0.17000    0.03500 0    0.00000    0.00000    0.00000
     23 "23          " 138.0000 :  1 0.996110 0.996110  -2.16136   1    1 1.1000 0.9000   400101   391231   0 0   1 0    0.23500    0.03000 0    0.00000    0.00000    0.00000
     24 "24          " 138.0000 :  1 0.958704 0.958704  -9.87749   1    1 1.1000 0.9000   400101   391231   0 0   1 0    0.09000    0.06000 0    0.00000    0.00000    0.00000
     25 "25          " 138.0000 :  1 0.998103 0.998103 -10.00029   1    1 1.1000 0.9000   400101   391231   0 0   1 0    0.07500    0.11000 0    0.00000    0.00000    0.00000
     26 "26          " 138.0000 :  1 0.986860 0.986860 -11.02023   1    1 1.1000 0.9000   400101   391231   0 0   1 0    0.05500    0.08500 0    0.00000    0.00000    0.00000
     27 "27          " 138.0000 :  1 0.967893 0.967893 -12.85789   1    1 1.1000 0.9000   400101   391231   0 0   1 0    0.07500    0.08000 0    0.00000    0.00000    0.00000
     28 "28          " 138.0000 :  1 0.989733 0.989733  -7.49754   1    1 1.1000 0.9000   400101   391231   0 0   1 0    0.05500    0.05500 0    0.00000    0.00000    0.00000
     29 "29          " 138.0000 :  1 0.992090 0.992090  -4.54723   1    1 1.1000 0.9000   400101   391231   0 0   1 0    0.05500    0.02500 0    0.00000    0.00000    0.00000
     30 "30          " 138.0000 :  1 0.976181 0.976181 -19.71076   2    1 1.1000 0.9000   400101   391231   0 0   1 0    0.14500    0.19500 0    0.00000    0.00000    0.00000
     31 "31          " 138.0000 :  1 0.983810 0.983810 -17.46476   2    1 1.1000 0.9000   400101   391231   0 0   1 0    0.08000    0.27000 0    0.00000    0.00000    0.00000
     32 "32          " 138.0000 :  1 0.969881 0.969881 -15.23827   2    1 1.1000 0.9000   400101   391231   0 0   1 0    0.13000    0.23000 0    0.00000    0.00000    0.00000
     33 "33          " 138.0000 :  1 0.973807 0.973807 -19.75880   2    1 1.1000 0.9000   400101   391231   0 0   1 0    0.13500    0.23000 0    0.00000    0.00000    0.00000
     34 "34          " 138.0000 :  1 0.980031 0.980031 -26.11667   2    1 1.1000 0.9000   400101   391231   0 0   1 0    0.17000    0.22500 0    0.00000    0.00000    0.00000
     35 "35          " 138.0000 :  1 1.043021 1.043021 -27.08934   2    1 1.1000 0.9000   400101   391231   0 0   1 0    0.17000    0.25000 0    0.00000    0.00000    0.00000
     36 "36          " 138.0000 :  1 0.960639 0.960639 -28.82821   2    1 1.1000 0.9000   400101   391231   0 0   1 0    0.19000    0.21000 0    0.00000    0.00000    0.00000
     37 "37          " 138.0000 :  1 0.955512 0.955512 -11.78883   1    1 1.1000 0.9000   400101   391231   0 0   1 0    0.12000    0.08000 0    0.00000    0.00000    0.00000
     38 "38          " 138.0000 :  1 0.988974 0.988974 -18.76007   2    1 1.1000 0.9000   400101   391231   0 0   1 0    0.13500    0.25000 0    0.00000    0.00000    0.00000
     39 "39          " 138.0000 :  1 0.991539 0.991539 -39.29101   2    1 1.1000 0.9000   400101   391231   0 0   1 0    0.21000    0.25000 0    0.00000    0.00000    0.00000
     40 "40          " 138.0000 :  1 1.044219 1.044219 -13.64069   2    1 1.1000 0.9000   400101   391231   0 0   1 0    0.05000    0.27000 0    0.00000    0.00000    0.00000
     41 "41          " 138.0000 :  1 0.999645 0.999645   9.42674   3    1 1.1000 0.9000   400101   391231   0 0   1 0    0.08500    0.33000 0    0.00000    0.00000    0.00000
     42 "42          " 138.0000 :  1 0.998961 0.998961  -0.84382   4    1 1.1000 0.9000   400101   391231   0 0   1 0    0.13000    0.33000 0    0.00000    0.00000    0.00000
     43 "43          " 138.0000 :  1 0.976494 0.976494 -37.90966   2    1 1.1000 0.9000   400101   391231   0 0   1 0    0.25000    0.24000 0    0.00000    0.00000    0.00000
     44 "44          " 138.0000 :  1 0.977485 0.977485 -37.98723   2    1 1.1000 0.9000   400101   391231   0 0   1 0    0.23000    0.26000 0    0.00000    0.00000    0.00000
     45 "45          " 138.0000 :  1 1.047086 1.047086 -29.36335   2    1 1.1000 0.9000   400101   391231   0 0   1 0    0.19000    0.25500 0    0.00000    0.00000    0.00000
     46 "46          " 138.0000 :  1 0.990314 0.990314 -20.53204   2    1 1.1000 0.9000   400101   391231   0 0   1 0    0.13500    0.28000 0    0.00000    0.00000    0.00000
     47 "47          " 138.0000 :  1 1.018399 1.018399 -19.49834   2    1 1.1000 0.9000   400101   391231   0 0   1 0    0.05000    0.19500 0    0.00000    0.00000    0.00000
     48 "48          " 138.0000 :  1 1.033742 1.033742 -18.37683   2    1 1.1000 0.9000   400101   391231   0 0   1 0    0.05000    0.24000 0    0.00000    0.00000    0.00000
     49 "49          " 138.0000 :  1 0.993611 0.993611 -19.82017   2    1 1.1000 0.9000   400101   391231   0 0   1 0    0.16500    0.28000 0    0.00000    0.00000    0.00000
     50 "50          " 138.0000 :  1 1.060239 1.060239 -19.05249   2    1 1.1000 0.9000   400101   391231   0 0   1 0    0.21000    0.28000 0    0.00000    0.00000    0.00000
     51 "51          " 138.0000 :  1 1.063370 1.063370 -27.28878   2    1 1.1000 0.9000   400101   391231   0 0   1 0    0.19500    0.28500 0    0.00000    0.00000    0.00000
     52 "52          " 138.0000 :  1 0.954537 0.954537 -12.83423   1    1 1.1000 0.9000   400101   391231   0 0   1 0    0.14000    0.12000 0    0.00000    0.00000    0.00000
     53 "53          " 138.0000 :  1 0.986334 0.986334 -18.93803   2    1 1.1000 0.9000   400101   391231   0 0   1 0    0.06500    0.21000 0    0.00000    0.00000    0.00000
     54 "54          " 138.0000 :  1 0.985714 0.985714 -11.53777   1    1 1.1000 0.9000   400101   391231   0 0   1 0    0.07500    0.14500 0    0.00000    0.00000    0.00000
     55 "55          " 138.0000 :  1 0.957118 0.957118 -13.21867   1    1 1.1000 0.9000   400101   391231   0 0   1 0    0.12500    0.13000 0    0.00000    0.00000    0.00000
     56 "56          " 138.0000 :  1 0.920844 0.920844 -11.96006   1    1 1.1000 0.9000   400101   391231   0 0   1 0    0.16500    0.13000 0    0.00000    0.00000    0.00000
     57 "57          " 138.0000 :  1 0.910194 0.910194 -11.21367   1    1 1.1000 0.9000   400101   391231   0 0   1 0    0.20500    0.13500 0    0.00000    0.00000    0.00000
     58 "58          " 138.0000 :  1 0.909032 0.909032 -10.40304   1    1 1.1000 0.9000   400101   391231   0 0   1 0    0.22500    0.12500 0    0.00000    0.00000    0.00000
     59 "59          " 138.0000 :  1 0.903746 0.903746 -13.31176   1    1 1.1000 0.9000   400101   391231   0 0   1 0    0.22500    0.14000 0    0.00000    0.00000    0.00000
     60 "60          " 138.0000 :  1 0.906173 0.906173 -14.03759   1    1 1.1000 0.9000   400101   391231   0 0   1 0    0.22000    0.14500 0    0.00000    0.00000    0.00000
     61 "61          " 138.0000 :  1 0.955647 0.955647 -23.22306   2    1 1.1000 0.9000   400101   391231   0 0   1 0    0.17000    0.19000 0    0.00000    0.00000    0.00000
     62 "62          " 138.0000 :  1 0.912147 0.912147  -7.31249   1    1 1.1000 0.9000   400101   391231   0 0   1 0    0.23000    0.09500 0    0.00000    0.00000    0.00000
     63 "63          " 138.0000 :  1 0.909646 0.909646  -8.37075   1    1 1.1000 0.9000   400101   391231   0 0   1 0    0.21000    0.11000 0    0.00000    0.00000    0.00000
     64 "64          " 138.0000 :  1 0.836659 0.836659  -8.37781   1    1 1.1000 0.9000   400101   391231   0 0   1 0    0.18500    0.10000 0    0.00000    0.00000    0.00000
     65 "65          " 138.0000 :  1 0.912758 0.912758  -8.18547   1    1 1.1000 0.9000   400101   391231   0 0   1 0    0.21000    0.09000 0    0.00000    0.00000    0.00000
     66 "66          " 138.0000 :  1 0.919396 0.919396 -10.19172   1    1 1.1000 0.9000   400101   391231   0 0   1 0    0.16500    0.09000 0    0.00000    0.00000    0.00000
     67 "67          " 138.0000 :  1 0.928034 0.928034 -11.43065   1    1 1.1000 0.9000   400101   391231   0 0   1 0    0.15000    0.09000 0    0.00000    0.00000    0.00000
     68 "68          " 138.0000 :  1 0.948289 0.948289 -10.07202   1    1 1.1000 0.9000   400101   391231   0 0   1 0    0.14000    0.07000 0    0.00000    0.00000    0.00000
branch data  [   64]                                          ck  se  ------------long_id_------------    st resist   react   charge   rate1  rate2  rate3  rate4 aloss  lngth 
      7 "7           " 138.00      23 "23          " 138.00  "1 "  1 "                                " :  1  0.000500  0.027200  0.000000    0.0    0.0    0.0    0.0 0.000    0.0 /
   1    1  0.000000  0.000000  1.000000   400101   391231   0 1  0    0.0    0.0    0.0    0.0   1 1.000   0 0.000   0 0.000   0 0.000   0 0.000   0 0.000   0 0.000   0 0.000  0 0 
     17 "17          " 138.00      36 "36          " 138.00  "1 "  1 "                                " :  1  0.000500  0.004500  0.320000    0.0    0.0    0.0    0.0 0.000    0.0 /
   2    1  0.000000  0.000000  1.000000   400101   391231   0 1  0    0.0    0.0    0.0    0.0   1 1.000   0 0.000   0 0.000   0 0.000   0 0.000   0 0.000   0 0.000   0 0.000  0 0 
     17 "17          " 138.00      43 "43          " 138.00  "1 "  1 "                                " :  1  0.000500  0.027600  0.000000    0.0    0.0    0.0    0.0 0.000    0.0 /
   2    1  0.000000  0.000000  1.000000   400101   391231   0 1  0    0.0    0.0    0.0    0.0   1 1.000   0 0.000   0 0.000   0 0.000   0 0.000   0 0.000   0 0.000   0 0.000  0 0 
     18 "18          " 138.00      42 "42          " 138.00  "1 "  1 "                                " :  1  0.004000  0.060000  2.250000    0.0    0.0    0.0    0.0 0.000    0.0 /
   4    1  0.000000  0.000000  1.000000   400101   391231   0 1  0    0.0    0.0    0.0    0.0   1 1.000   0 0.000   0 0.000   0 0.000   0 0.000   0 0.000   0 0.000   0 0.000  0 0 
     18 "18          " 138.00      49 "49          " 138.00  "1 "  1 "                                " :  1  0.007600  0.114100  1.160000    0.0    0.0    0.0    0.0 0.000    0.0 /
   2    1  0.000000  0.000000  1.000000   400101   391231   0 1  0    0.0    0.0    0.0    0.0   1 1.000   0 0.000   0 0.000   0 0.000   0 0.000   0 0.000   0 0.000   0 0.000  0 0 
     18 "18          " 138.00      50 "50          " 138.00  "1 "  1 "                                " :  1  0.001200  0.028800  2.060000    0.0    0.0    0.0    0.0 0.000    0.0 /
   2    1  0.000000  0.000000  1.000000   400101   391231   0 1  0    0.0    0.0    0.0    0.0   1 1.000   0 0.000   0 0.000   0 0.000   0 0.000   0 0.000   0 0.000   0 0.000  0 0 
     19 "19          " 138.00      68 "68          " 138.00  "1 "  1 "                                " :  1  0.001600  0.019500  0.304000    0.0    0.0    0.0    0.0 0.000    0.0 /
   1    1  0.000000  0.000000  1.000000   400101   391231   0 1  0    0.0    0.0    0.0    0.0   1 1.000   0 0.000   0 0.000   0 0.000   0 0.000   0 0.000   0 0.000   0 0.000  0 0 
     21 "21          " 138.00      22 "22          " 138.00  "1 "  1 "                                " :  1  0.000800  0.014000  0.256500    0.0    0.0    0.0    0.0 0.000    0.0 /
   1    1  0.000000  0.000000  1.000000   400101   391231   0 1  0    0.0    0.0    0.0    0.0   1 1.000   0 0.000   0 0.000   0 0.000   0 0.000   0 0.000   0 0.000   0 0.000  0 0 
     21 "21          " 138.00      68 "68          " 138.00  "1 "  1 "                                " :  1  0.000800  0.013500  0.254800    0.0    0.0    0.0    0.0 0.000    0.0 /
   1    1  0.000000  0.000000  1.000000   400101   391231   0 1  0    0.0    0.0    0.0    0.0   1 1.000   0 0.000   0 0.000   0 0.000   0 0.000   0 0.000   0 0.000   0 0.000  0 0 
     22 "22          " 138.00      23 "23          " 138.00  "1 "  1 "                                " :  1  0.000600  0.009600  0.184600    0.0    0.0    0.0    0.0 0.000    0.0 /
   1    1  0.000000  0.000000  1.000000   400101   391231   0 1  0    0.0    0.0    0.0    0.0   1 1.000   0 0.000   0 0.000   0 0.000   0 0.000   0 0.000   0 0.000   0 0.000  0 0 
     23 "23          " 138.00      24 "24          " 138.00  "1 "  1 "                                " :  1  0.002200  0.035000  0.361000    0.0    0.0    0.0    0.0 0.000    0.0 /
   1    1  0.000000  0.000000  1.000000   400101   391231   0 1  0    0.0    0.0    0.0    0.0   1 1.000   0 0.000   0 0.000   0 0.000   0 0.000   0 0.000   0 0.000   0 0.000  0 0 
     24 "24          " 138.00      68 "68          " 138.00  "1 "  1 "                                " :  1  0.000300  0.005900  0.068000    0.0    0.0    0.0    0.0 0.000    0.0 /
   1    1  0.000000  0.000000  1.000000   400101   391231   0 1  0    0.0    0.0    0.0    0.0   1 1.000   0 0.000   0 0.000   0 0.000   0 0.000   0 0.000   0 0.000   0 0.000  0 0 
     25 "25          " 138.00      26 "26          " 138.00  "1 "  1 "                                " :  1  0.003200  0.032300  0.531000    0.0    0.0    0.0    0.0 0.000    0.0 /
   1    1  0.000000  0.000000  1.000000   400101   391231   0 1  0    0.0    0.0    0.0    0.0   1 1.000   0 0.000   0 0.000   0 0.000   0 0.000   0 0.000   0 0.000   0 0.000  0 0 
     25 "25          " 138.00      54 "54          " 138.00  "1 "  1 "                                " :  1  0.007000  0.008600  0.146000    0.0    0.0    0.0    0.0 0.000    0.0 /
   1    1  0.000000  0.000000  1.000000   400101   391231   0 1  0    0.0    0.0    0.0    0.0   1 1.000   0 0.000   0 0.000   0 0.000   0 0.000   0 0.000   0 0.000   0 0.000  0 0 
     26 "26          " 138.00      27 "27          " 138.00  "1 "  1 "                                " :  1  0.001400  0.014700  0.239600    0.0    0.0    0.0    0.0 0.000    0.0 /
   1    1  0.000000  0.000000  1.000000   400101   391231   0 1  0    0.0    0.0    0.0    0.0   1 1.000   0 0.000   0 0.000   0 0.000   0 0.000   0 0.000   0 0.000   0 0.000  0 0 
     26 "26          " 138.00      28 "28          " 138.00  "1 "  1 "                                " :  1  0.004300  0.047400  0.780200    0.0    0.0    0.0    0.0 0.000    0.0 /
   1    1  0.000000  0.000000  1.000000   400101   391231   0 1  0    0.0    0.0    0.0    0.0   1 1.000   0 0.000   0 0.000   0 0.000   0 0.000   0 0.000   0 0.000   0 0.000  0 0 
     26 "26          " 138.00      29 "29          " 138.00  "1 "  1 "                                " :  1  0.005700  0.062500  1.029000    0.0    0.0    0.0    0.0 0.000    0.0 /
   1    1  0.000000  0.000000  1.000000   400101   391231   0 1  0    0.0    0.0    0.0    0.0   1 1.000   0 0.000   0 0.000   0 0.000   0 0.000   0 0.000   0 0.000   0 0.000  0 0 
     27 "27          " 138.00      37 "37          " 138.00  "1 "  1 "                                " :  1  0.001300  0.017300  0.321600    0.0    0.0    0.0    0.0 0.000    0.0 /
   1    1  0.000000  0.000000  1.000000   400101   391231   0 1  0    0.0    0.0    0.0    0.0   1 1.000   0 0.000   0 0.000   0 0.000   0 0.000   0 0.000   0 0.000   0 0.000  0 0 
     27 "27          " 138.00      53 "53          " 138.00  "1 "  1 "                                " :  1  0.032000  0.320000  0.410000    0.0    0.0    0.0    0.0 0.000    0.0 /
   2    1  0.000000  0.000000  1.000000   400101   391231   0 1  0    0.0    0.0    0.0    0.0   1 1.000   0 0.000   0 0.000   0 0.000   0 0.000   0 0.000   0 0.000   0 0.000  0 0 
     29 "29          " 138.00      28 "28          " 138.00  "1 "  1 "                                " :  1  0.001400  0.015100  0.249000    0.0    0.0    0.0    0.0 0.000    0.0 /
   1    1  0.000000  0.000000  1.000000   400101   391231   0 1  0    0.0    0.0    0.0    0.0   1 1.000   0 0.000   0 0.000   0 0.000   0 0.000   0 0.000   0 0.000   0 0.000  0 0 
     30 "30          " 138.00      31 "31          " 138.00  "1 "  1 "                                " :  1  0.001300  0.018700  0.333000    0.0    0.0    0.0    0.0 0.000    0.0 /
   2    1  0.000000  0.000000  1.000000   400101   391231   0 1  0    0.0    0.0    0.0    0.0   1 1.000   0 0.000   0 0.000   0 0.000   0 0.000   0 0.000   0 0.000   0 0.000  0 0 
     30 "30          " 138.00      32 "32          " 138.00  "1 "  1 "                                " :  1  0.002400  0.028800  0.488000    0.0    0.0    0.0    0.0 0.000    0.0 /
   2    1  0.000000  0.000000  1.000000   400101   391231   0 1  0    0.0    0.0    0.0    0.0   1 1.000   0 0.000   0 0.000   0 0.000   0 0.000   0 0.000   0 0.000   0 0.000  0 0 
     30 "30          " 138.00      53 "53          " 138.00  "1 "  1 "                                " :  1  0.000800  0.007400  0.480000    0.0    0.0    0.0    0.0 0.000    0.0 /
   2    1  0.000000  0.000000  1.000000   400101   391231   0 1  0    0.0    0.0    0.0    0.0   1 1.000   0 0.000   0 0.000   0 0.000   0 0.000   0 0.000   0 0.000   0 0.000  0 0 
     30 "30          " 138.00      61 "61          " 138.00  "1 "  1 "                                " :  1  0.000950  0.009150  0.580000    0.0    0.0    0.0    0.0 0.000    0.0 /
   2    1  0.000000  0.000000  1.000000   400101   391231   0 1  0    0.0    0.0    0.0    0.0   1 1.000   0 0.000   0 0.000   0 0.000   0 0.000   0 0.000   0 0.000   0 0.000  0 0 
     31 "31          " 138.00      38 "38          " 138.00  "1 "  1 "                                " :  1  0.001100  0.014700  0.247000    0.0    0.0    0.0    0.0 0.000    0.0 /
   2    1  0.000000  0.000000  1.000000   400101   391231   0 1  0    0.0    0.0    0.0    0.0   1 1.000   0 0.000   0 0.000   0 0.000   0 0.000   0 0.000   0 0.000   0 0.000  0 0 
     31 "31          " 138.00      53 "53          " 138.00  "1 "  1 "                                " :  1  0.001600  0.016300  0.250000    0.0    0.0    0.0    0.0 0.000    0.0 /
   2    1  0.000000  0.000000  1.000000   400101   391231   0 1  0    0.0    0.0    0.0    0.0   1 1.000   0 0.000   0 0.000   0 0.000   0 0.000   0 0.000   0 0.000   0 0.000  0 0 
     32 "32          " 138.00      33 "33          " 138.00  "1 "  1 "                                " :  1  0.000800  0.009900  0.168000    0.0    0.0    0.0    0.0 0.000    0.0 /
   2    1  0.000000  0.000000  1.000000   400101   391231   0 1  0    0.0    0.0    0.0    0.0   1 1.000   0 0.000   0 0.000   0 0.000   0 0.000   0 0.000   0 0.000   0 0.000  0 0 
     33 "33          " 138.00      34 "34          " 138.00  "1 "  1 "                                " :  1  0.001100  0.015700  0.202000    0.0    0.0    0.0    0.0 0.000    0.0 /
   2    1  0.000000  0.000000  1.000000   400101   391231   0 1  0    0.0    0.0    0.0    0.0   1 1.000   0 0.000   0 0.000   0 0.000   0 0.000   0 0.000   0 0.000   0 0.000  0 0 
     33 "33          " 138.00      38 "38          " 138.00  "1 "  1 "                                " :  1  0.003600  0.044400  0.693000    0.0    0.0    0.0    0.0 0.000    0.0 /
   2    1  0.000000  0.000000  1.000000   400101   391231   0 1  0    0.0    0.0    0.0    0.0   1 1.000   0 0.000   0 0.000   0 0.000   0 0.000   0 0.000   0 0.000   0 0.000  0 0 
     34 "34          " 138.00      36 "36          " 138.00  "1 "  1 "                                " :  1  0.003300  0.011100  1.450000    0.0    0.0    0.0    0.0 0.000    0.0 /
   2    1  0.000000  0.000000  1.000000   400101   391231   0 1  0    0.0    0.0    0.0    0.0   1 1.000   0 0.000   0 0.000   0 0.000   0 0.000   0 0.000   0 0.000   0 0.000  0 0 
     35 "35          " 138.00      45 "45          " 138.00  "1 "  1 "                                " :  1  0.000700  0.017500  1.390000    0.0    0.0    0.0    0.0 0.000    0.0 /
   2    1  0.000000  0.000000  1.000000   400101   391231   0 1  0    0.0    0.0    0.0    0.0   1 1.000   0 0.000   0 0.000   0 0.000   0 0.000   0 0.000   0 0.000   0 0.000  0 0 
     36 "36          " 138.00      61 "61          " 138.00  "1 "  1 "                                " :  1  0.001100  0.009800  0.680000    0.0    0.0    0.0    0.0 0.000    0.0 /
   2    1  0.000000  0.000000  1.000000   400101   391231   0 1  0    0.0    0.0    0.0    0.0   1 1.000   0 0.000   0 0.000   0 0.000   0 0.000   0 0.000   0 0.000   0 0.000  0 0 
     37 "37          " 138.00      52 "52          " 138.00  "1 "  1 "                                " :  1  0.000700  0.008200  0.131900    0.0    0.0    0.0    0.0 0.000    0.0 /
   1    1  0.000000  0.000000  1.000000   400101   391231   0 1  0    0.0    0.0    0.0    0.0   1 1.000   0 0.000   0 0.000   0 0.000   0 0.000   0 0.000   0 0.000   0 0.000  0 0 
     37 "37          " 138.00      68 "68          " 138.00  "1 "  1 "                                " :  1  0.000700  0.008900  0.134200    0.0    0.0    0.0    0.0 0.000    0.0 /
   1    1  0.000000  0.000000  1.000000   400101   391231   0 1  0    0.0    0.0    0.0    0.0   1 1.000   0 0.000   0 0.000   0 0.000   0 0.000   0 0.000   0 0.000   0 0.000  0 0 
     38 "38          " 138.00      46 "46          " 138.00  "1 "  1 "                                " :  1  0.002200  0.028400  0.430000    0.0    0.0    0.0    0.0 0.000    0.0 /
   2    1  0.000000  0.000000  1.000000   400101   391231   0 1  0    0.0    0.0    0.0    0.0   1 1.000   0 0.000   0 0.000   0 0.000   0 0.000   0 0.000   0 0.000   0 0.000  0 0 
     39 "39          " 138.00      44 "44          " 138.00  "1 "  1 "                                " :  1  0.000000  0.041100  0.000000    0.0    0.0    0.0    0.0 0.000    0.0 /
   2    1  0.000000  0.000000  1.000000   400101   391231   0 1  0    0.0    0.0    0.0    0.0   1 1.000   0 0.000   0 0.000   0 0.000   0 0.000   0 0.000   0 0.000   0 0.000  0 0 
     39 "39          " 138.00      45 "45          " 138.00  "1 "  1 "                                " :  1  0.000000  0.083900  0.000000    0.0    0.0    0.0    0.0 0.000    0.0 /
   2    1  0.000000  0.000000  1.000000   400101   391231   0 1  0    0.0    0.0    0.0    0.0   1 1.000   0 0.000   0 0.000   0 0.000   0 0.000   0 0.000   0 0.000   0 0.000  0 0 
     40 "40          " 138.00      41 "41          " 138.00  "1 "  1 "                                " :  1  0.006000  0.084000  3.150000    0.0    0.0    0.0    0.0 0.000    0.0 /
   3    1  0.000000  0.000000  1.000000   400101   391231   0 1  0    0.0    0.0    0.0    0.0   1 1.000   0 0.000   0 0.000   0 0.000   0 0.000   0 0.000   0 0.000   0 0.000  0 0 
     40 "40          " 138.00      48 "48          " 138.00  "1 "  1 "                                " :  1  0.002000  0.022000  1.280000    0.0    0.0    0.0    0.0 0.000    0.0 /
   2    1  0.000000  0.000000  1.000000   400101   391231   0 1  0    0.0    0.0    0.0    0.0   1 1.000   0 0.000   0 0.000   0 0.000   0 0.000   0 0.000   0 0.000   0 0.000  0 0 
     41 "41          " 138.00      42 "42          " 138.00  "1 "  1 "                                " :  1  0.004000  0.060000  2.250000    0.0    0.0    0.0    0.0 0.000    0.0 /
   4    1  0.000000  0.000000  1.000000   400101   391231   0 1  0    0.0    0.0    0.0    0.0   1 1.000   0 0.000   0 0.000   0 0.000   0 0.000   0 0.000   0 0.000   0 0.000  0 0 
     43 "43          " 138.00      44 "44          " 138.00  "1 "  1 "                                " :  1  0.000100  0.001100  0.000000    0.0    0.0    0.0    0.0 0.000    0.0 /
   2    1  0.000000  0.000000  1.000000   400101   391231   0 1  0    0.0    0.0    0.0    0.0   1 1.000   0 0.000   0 0.000   0 0.000   0 0.000   0 0.000   0 0.000   0 0.000  0 0 
     44 "44          " 138.00      45 "45          " 138.00  "1 "  1 "                                " :  1  0.002500  0.073000  0.000000    0.0    0.0    0.0    0.0 0.000    0.0 /
   2    1  0.000000  0.000000  1.000000   400101   391231   0 1  0    0.0    0.0    0.0    0.0   1 1.000   0 0.000   0 0.000   0 0.000   0 0.000   0 0.000   0 0.000   0 0.000  0 0 
     45 "45          " 138.00      51 "51          " 138.00  "1 "  1 "                                " :  1  0.000400  0.010500  0.720000    0.0    0.0    0.0    0.0 0.000    0.0 /
   2    1  0.000000  0.000000  1.000000   400101   391231   0 1  0    0.0    0.0    0.0    0.0   1 1.000   0 0.000   0 0.000   0 0.000   0 0.000   0 0.000   0 0.000   0 0.000  0 0 
     46 "46          " 138.00      49 "49          " 138.00  "1 "  1 "                                " :  1  0.001800  0.027400  0.270000    0.0    0.0    0.0    0.0 0.000    0.0 /
   2    1  0.000000  0.000000  1.000000   400101   391231   0 1  0    0.0    0.0    0.0    0.0   1 1.000   0 0.000   0 0.000   0 0.000   0 0.000   0 0.000   0 0.000   0 0.000  0 0 
     47 "47          " 138.00      48 "48          " 138.00  "1 "  1 "                                " :  1  0.001250  0.013400  0.800000    0.0    0.0    0.0    0.0 0.000    0.0 /
   2    1  0.000000  0.000000  1.000000   400101   391231   0 1  0    0.0    0.0    0.0    0.0   1 1.000   0 0.000   0 0.000   0 0.000   0 0.000   0 0.000   0 0.000   0 0.000  0 0 
     47 "47          " 138.00      53 "53          " 138.00  "1 "  1 "                                " :  1  0.001300  0.018800  1.310000    0.0    0.0    0.0    0.0 0.000    0.0 /
   2    1  0.000000  0.000000  1.000000   400101   391231   0 1  0    0.0    0.0    0.0    0.0   1 1.000   0 0.000   0 0.000   0 0.000   0 0.000   0 0.000   0 0.000   0 0.000  0 0 
     50 "50          " 138.00      51 "51          " 138.00  "1 "  1 "                                " :  1  0.000900  0.022100  1.620000    0.0    0.0    0.0    0.0 0.000    0.0 /
   2    1  0.000000  0.000000  1.000000   400101   391231   0 1  0    0.0    0.0    0.0    0.0   1 1.000   0 0.000   0 0.000   0 0.000   0 0.000   0 0.000   0 0.000   0 0.000  0 0 
     52 "52          " 138.00      55 "55          " 138.00  "1 "  1 "                                " :  1  0.001100  0.013300  0.213800    0.0    0.0    0.0    0.0 0.000    0.0 /
   1    1  0.000000  0.000000  1.000000   400101   391231   0 1  0    0.0    0.0    0.0    0.0   1 1.000   0 0.000   0 0.000   0 0.000   0 0.000   0 0.000   0 0.000   0 0.000  0 0 
     53 "53          " 138.00      54 "54          " 138.00  "1 "  1 "                                " :  1  0.003500  0.041100  0.698700    0.0    0.0    0.0    0.0 0.000    0.0 /
   1    1  0.000000  0.000000  1.000000   400101   391231   0 1  0    0.0    0.0    0.0    0.0   1 1.000   0 0.000   0 0.000   0 0.000   0 0.000   0 0.000   0 0.000   0 0.000  0 0 
     54 "54          " 138.00      55 "55          " 138.00  "1 "  1 "                                " :  1  0.001300  0.015100  0.257200    0.0    0.0    0.0    0.0 0.000    0.0 /
   1    1  0.000000  0.000000  1.000000   400101   391231   0 1  0    0.0    0.0    0.0    0.0   1 1.000   0 0.000   0 0.000   0 0.000   0 0.000   0 0.000   0 0.000   0 0.000  0 0 
     55 "55          " 138.00      56 "56          " 138.00  "1 "  1 "                                " :  1  0.001300  0.021300  0.221400    0.0    0.0    0.0    0.0 0.000    0.0 /
   1    1  0.000000  0.000000  1.000000   400101   391231   0 1  0    0.0    0.0    0.0    0.0   1 1.000   0 0.000   0 0.000   0 0.000   0 0.000   0 0.000   0 0.000   0 0.000  0 0 
     56 "56          " 138.00      57 "57          " 138.00  "1 "  1 "                                " :  1  0.000800  0.012800  0.134200    0.0    0.0    0.0    0.0 0.000    0.0 /
   1    1  0.000000  0.000000  1.000000   400101   391231   0 1  0    0.0    0.0    0.0    0.0   1 1.000   0 0.000   0 0.000   0 0.000   0 0.000   0 0.000   0 0.000   0 0.000  0 0 
     56 "56          " 138.00      66 "66          " 138.00  "1 "  1 "                                " :  1  0.000800  0.012900  0.138200    0.0    0.0    0.0    0.0 0.000    0.0 /
   1    1  0.000000  0.000000  1.000000   400101   391231   0 1  0    0.0    0.0    0.0    0.0   1 1.000   0 0.000   0 0.000   0 0.000   0 0.000   0 0.000   0 0.000   0 0.000  0 0 
     57 "57          " 138.00      58 "58          " 138.00  "1 "  1 "                                " :  1  0.000200  0.002600  0.043400    0.0    0.0    0.0    0.0 0.000    0.0 /
   1    1  0.000000  0.000000  1.000000   400101   391231   0 1  0    0.0    0.0    0.0    0.0   1 1.000   0 0.000   0 0.000   0 0.000   0 0.000   0 0.000   0 0.000   0 0.000  0 0 
     57 "57          " 138.00      60 "60          " 138.00  "1 "  1 "                                " :  1  0.000800  0.011200  0.147600    0.0    0.0    0.0    0.0 0.000    0.0 /
   1    1  0.000000  0.000000  1.000000   400101   391231   0 1  0    0.0    0.0    0.0    0.0   1 1.000   0 0.000   0 0.000   0 0.000   0 0.000   0 0.000   0 0.000   0 0.000  0 0 
     58 "58          " 138.00      59 "59          " 138.00  "1 "  1 "                                " :  1  0.000600  0.009200  0.113000    0.0    0.0    0.0    0.0 0.000    0.0 /
   1    1  0.000000  0.000000  1.000000   400101   391231   0 1  0    0.0    0.0    0.0    0.0   1 1.000   0 0.000   0 0.000   0 0.000   0 0.000   0 0.000   0 0.000   0 0.000  0 0 
     58 "58          " 138.00      63 "63          " 138.00  "1 "  1 "                                " :  1  0.000700  0.008200  0.138900    0.0    0.0    0.0    0.0 0.000    0.0 /
   1    1  0.000000  0.000000  1.000000   400101   391231   0 1  0    0.0    0.0    0.0    0.0   1 1.000   0 0.000   0 0.000   0 0.000   0 0.000   0 0.000   0 0.000   0 0.000  0 0 
     59 "59          " 138.00      60 "60          " 138.00  "1 "  1 "                                " :  1  0.000400  0.004600  0.078000    0.0    0.0    0.0    0.0 0.000    0.0 /
   1    1  0.000000  0.000000  1.000000   400101   391231   0 1  0    0.0    0.0    0.0    0.0   1 1.000   0 0.000   0 0.000   0 0.000   0 0.000   0 0.000   0 0.000   0 0.000  0 0 
     60 "60          " 138.00      61 "61          " 138.00  "1 "  1 "                                " :  1  0.002300  0.036300  0.380400    0.0    0.0    0.0    0.0 0.000    0.0 /
   2    1  0.000000  0.000000  1.000000   400101   391231   0 1  0    0.0    0.0    0.0    0.0   1 1.000   0 0.000   0 0.000   0 0.000   0 0.000   0 0.000   0 0.000   0 0.000  0 0 
     62 "62          " 138.00      63 "63          " 138.00  "1 "  1 "                                " :  1  0.000400  0.004300  0.072900    0.0    0.0    0.0    0.0 0.000    0.0 /
   1    1  0.000000  0.000000  1.000000   400101   391231   0 1  0    0.0    0.0    0.0    0.0   1 1.000   0 0.000   0 0.000   0 0.000   0 0.000   0 0.000   0 0.000   0 0.000  0 0 
     62 "62          " 138.00      65 "65          " 138.00  "1 "  1 "                                " :  1  0.000400  0.004300  0.072900    0.0    0.0    0.0    0.0 0.000    0.0 /
   1    1  0.000000  0.000000  1.000000   400101   391231   0 1  0    0.0    0.0    0.0    0.0   1 1.000   0 0.000   0 0.000   0 0.000   0 0.000   0 0.000   0 0.000   0 0.000  0 0 
     65 "65          " 138.00      66 "66          " 138.00  "1 "  1 "                                " :  1  0.000900  0.010100  0.172300    0.0    0.0    0.0    0.0 0.000    0.0 /
   1    1  0.000000  0.000000  1.000000   400101   391231   0 1  0    0.0    0.0    0.0    0.0   1 1.000   0 0.000   0 0.000   0 0.000   0 0.000   0 0.000   0 0.000   0 0.000  0 0 
     66 "66          " 138.00      67 "67          " 138.00  "1 "  1 "                                " :  1  0.001800  0.021700  0.366000    0.0    0.0    0.0    0.0 0.000    0.0 /
   1    1  0.000000  0.000000  1.000000   400101   391231   0 1  0    0.0    0.0    0.0    0.0   1 1.000   0 0.000   0 0.000   0 0.000   0 0.000   0 0.000   0 0.000   0 0.000  0 0 
     67 "67          " 138.00      68 "68          " 138.00  "1 "  1 "                                " :  1  0.000900  0.009400  0.171000    0.0    0.0    0.0    0.0 0.000    0.0 /
   1    1  0.000000  0.000000  1.000000   400101   391231   0 1  0    0.0    0.0    0.0    0.0   1 1.000   0 0.000   0 0.000   0 0.000   0 0.000   0 0.000   0 0.000   0 0.000  0 0 
transformer data  [  19]                                     ck   ------------long_id_------------     st ty --no---    reg_name          zt         int                              tert                   ar zone  tbase   ps_r    ps_x    pt_r    pt_x    ts_r    ts_x
      1 "1           " 138.00      54 "54          " 138.00  "1 " "                                " :  1  1       0 "            "   0.00  0       0 "            "   0.00       0 "            "   0.00    1    1 100.000000 0.000000E+000 1.810000E-002 0.000000E+000 0.000000E+000 0.000000E+000 0.000000E+000 /
 138.000000 138.000000  0.000000  0.000000 0.000000E+000 0.000000E+000    0.0    0.0    0.0    0.0 0.000  1.500000  0.510000  1.500000  0.510000 -0.006250  1.025000  1.000000  1.000000  1.000000   400101   391231   0 1     0.0    0.0    0.0    0.0 /
   1 1.000   0 0.000   0 0.000   0 0.000   0 0.000   0 0.000   0 0.000   0 0.000  0 /
   0.000000   0.000000  0.000000  0.000000     0.0    0.0    0.0     0.0    0.0    0.0 0.000 0.000  0  0  0 0.0000 0.0000 0 
      2 "2           " 138.00      58 "58          " 138.00  "1 " "                                " :  1  1       0 "            "   0.00  0       0 "            "   0.00       0 "            "   0.00    1    1 100.000000 0.000000E+000 2.500000E-002 0.000000E+000 0.000000E+000 0.000000E+000 0.000000E+000 /
 138.000000 138.000000  0.000000  0.000000 0.000000E+000 0.000000E+000    0.0    0.0    0.0    0.0 0.000  1.500000  0.510000  1.500000  0.510000 -0.006250  1.070000  1.000000  1.000000  1.000000   400101   391231   0 1     0.0    0.0    0.0    0.0 /
   1 1.000   0 0.000   0 0.000   0 0.000   0 0.000   0 0.000   0 0.000   0 0.000  0 /
   0.000000   0.000000  0.000000  0.000000     0.0    0.0    0.0     0.0    0.0    0.0 0.000 0.000  0  0  0 0.0000 0.0000 0 
      3 "3           " 138.00      62 "62          " 138.00  "1 " "                                " :  1  1       0 "            "   0.00  0       0 "            "   0.00       0 "            "   0.00    1    1 100.000000 0.000000E+000 2.000000E-002 0.000000E+000 0.000000E+000 0.000000E+000 0.000000E+000 /
 138.000000 138.000000  0.000000  0.000000 0.000000E+000 0.000000E+000    0.0    0.0    0.0    0.0 0.000  1.500000  0.510000  1.500000  0.510000 -0.006250  1.070000  1.000000  1.000000  1.000000   400101   391231   0 1     0.0    0.0    0.0    0.0 /
   1 1.000   0 0.000   0 0.000   0 0.000   0 0.000   0 0.000   0 0.000   0 0.000  0 /
   0.000000   0.000000  0.000000  0.000000     0.0    0.0    0.0     0.0    0.0    0.0 0.000 0.000  0  0  0 0.0000 0.0000 0 
      4 "4           " 138.00      19 "19          " 138.00  "1 " "                                " :  1  1       0 "            "   0.00  0       0 "            "   0.00       0 "            "   0.00    1    1 100.000000 7.000000E-004 1.420000E-002 0.000000E+000 0.000000E+000 0.000000E+000 0.000000E+000 /
 138.000000 138.000000  0.000000  0.000000 0.000000E+000 0.000000E+000    0.0    0.0    0.0    0.0 0.000  1.500000  0.510000  1.500000  0.510000 -0.006250  1.070000  1.000000  1.000000  1.000000   400101   391231   0 1     0.0    0.0    0.0    0.0 /
   1 1.000   0 0.000   0 0.000   0 0.000   0 0.000   0 0.000   0 0.000   0 0.000  0 /
   0.000000   0.000000  0.000000  0.000000     0.0    0.0    0.0     0.0    0.0    0.0 0.000 0.000  0  0  0 0.0000 0.0000 0 
      5 "5           " 138.00      20 "20          " 138.00  "1 " "                                " :  1  1       0 "            "   0.00  0       0 "            "   0.00       0 "            "   0.00    1    1 100.000000 9.000000E-004 1.800000E-002 0.000000E+000 0.000000E+000 0.000000E+000 0.000000E+000 /
 138.000000 138.000000  0.000000  0.000000 0.000000E+000 0.000000E+000    0.0    0.0    0.0    0.0 0.000  1.500000  0.510000  1.500000  0.510000 -0.006250  1.009000  1.000000  1.000000  1.000000   400101   391231   0 1     0.0    0.0    0.0    0.0 /
   1 1.000   0 0.000   0 0.000   0 0.000   0 0.000   0 0.000   0 0.000   0 0.000  0 /
   0.000000   0.000000  0.000000  0.000000     0.0    0.0    0.0     0.0    0.0    0.0 0.000 0.000  0  0  0 0.0000 0.0000 0 
      6 "6           " 138.00      22 "22          " 138.00  "1 " "                                " :  1  1       0 "            "   0.00  0       0 "            "   0.00       0 "            "   0.00    1    1 100.000000 0.000000E+000 1.430000E-002 0.000000E+000 0.000000E+000 0.000000E+000 0.000000E+000 /
 138.000000 138.000000  0.000000  0.000000 0.000000E+000 0.000000E+000    0.0    0.0    0.0    0.0 0.000  1.500000  0.510000  1.500000  0.510000 -0.006250  1.025000  1.000000  1.000000  1.000000   400101   391231   0 1     0.0    0.0    0.0    0.0 /
   1 1.000   0 0.000   0 0.000   0 0.000   0 0.000   0 0.000   0 0.000   0 0.000  0 /
   0.000000   0.000000  0.000000  0.000000     0.0    0.0    0.0     0.0    0.0    0.0 0.000 0.000  0  0  0 0.0000 0.0000 0 
      8 "8           " 138.00      25 "25          " 138.00  "1 " "                                " :  1  1       0 "            "   0.00  0       0 "            "   0.00       0 "            "   0.00    1    1 100.000000 6.000000E-004 2.320000E-002 0.000000E+000 0.000000E+000 0.000000E+000 0.000000E+000 /
 138.000000 138.000000  0.000000  0.000000 0.000000E+000 0.000000E+000    0.0    0.0    0.0    0.0 0.000  1.500000  0.510000  1.500000  0.510000 -0.006250  1.025000  1.000000  1.000000  1.000000   400101   391231   0 1     0.0    0.0    0.0    0.0 /
   1 1.000   0 0.000   0 0.000   0 0.000   0 0.000   0 0.000   0 0.000   0 0.000  0 /
   0.000000   0.000000  0.000000  0.000000     0.0    0.0    0.0     0.0    0.0    0.0 0.000 0.000  0  0  0 0.0000 0.0000 0 
      9 "9           " 138.00      29 "29          " 138.00  "1 " "                                " :  1  1       0 "            "   0.00  0       0 "            "   0.00       0 "            "   0.00    1    1 100.000000 8.000000E-004 1.560000E-002 0.000000E+000 0.000000E+000 0.000000E+000 0.000000E+000 /
 138.000000 138.000000  0.000000  0.000000 0.000000E+000 0.000000E+000    0.0    0.0    0.0    0.0 0.000  1.500000  0.510000  1.500000  0.510000 -0.006250  1.025000  1.000000  1.000000  1.000000   400101   391231   0 1     0.0    0.0    0.0    0.0 /
   1 1.000   0 0.000   0 0.000   0 0.000   0 0.000   0 0.000   0 0.000   0 0.000  0 /
   0.000000   0.000000  0.000000  0.000000     0.0    0.0    0.0     0.0    0.0    0.0 0.000 0.000  0  0  0 0.0000 0.0000 0 
     10 "10          " 138.00      31 "31          " 138.00  "1 " "                                " :  1  1       0 "            "   0.00  0       0 "            "   0.00       0 "            "   0.00    2    1 100.000000 0.000000E+000 2.600000E-002 0.000000E+000 0.000000E+000 0.000000E+000 0.000000E+000 /
 138.000000 138.000000  0.000000  0.000000 0.000000E+000 0.000000E+000    0.0    0.0    0.0    0.0 0.000  1.500000  0.510000  1.500000  0.510000 -0.006250  1.040000  1.000000  1.000000  1.000000   400101   391231   0 1     0.0    0.0    0.0    0.0 /
   1 1.000   0 0.000   0 0.000   0 0.000   0 0.000   0 0.000   0 0.000   0 0.000  0 /
   0.000000   0.000000  0.000000  0.000000     0.0    0.0    0.0     0.0    0.0    0.0 0.000 0.000  0  0  0 0.0000 0.0000 0 
     11 "11          " 138.00      32 "32          " 138.00  "1 " "                                " :  1  1       0 "            "   0.00  0       0 "            "   0.00       0 "            "   0.00    2    1 100.000000 0.000000E+000 1.300000E-002 0.000000E+000 0.000000E+000 0.000000E+000 0.000000E+000 /
 138.000000 138.000000  0.000000  0.000000 0.000000E+000 0.000000E+000    0.0    0.0    0.0    0.0 0.000  1.500000  0.510000  1.500000  0.510000 -0.006250  1.040000  1.000000  1.000000  1.000000   400101   391231   0 1     0.0    0.0    0.0    0.0 /
   1 1.000   0 0.000   0 0.000   0 0.000   0 0.000   0 0.000   0 0.000   0 0.000  0 /
   0.000000   0.000000  0.000000  0.000000     0.0    0.0    0.0     0.0    0.0    0.0 0.000 0.000  0  0  0 0.0000 0.0000 0 
     12 "12          " 138.00      36 "36          " 138.00  "1 " "                                " :  1  1       0 "            "   0.00  0       0 "            "   0.00       0 "            "   0.00    2    1 100.000000 0.000000E+000 7.500000E-003 0.000000E+000 0.000000E+000 0.000000E+000 0.000000E+000 /
 138.000000 138.000000  0.000000  0.000000 0.000000E+000 0.000000E+000    0.0    0.0    0.0    0.0 0.000  1.500000  0.510000  1.500000  0.510000 -0.006250  1.040000  1.000000  1.000000  1.000000   400101   391231   0 1     0.0    0.0    0.0    0.0 /
   1 1.000   0 0.000   0 0.000   0 0.000   0 0.000   0 0.000   0 0.000   0 0.000  0 /
   0.000000   0.000000  0.000000  0.000000     0.0    0.0    0.0     0.0    0.0    0.0 0.000 0.000  0  0  0 0.0000 0.0000 0 
     13 "13          " 138.00      17 "17          " 138.00  "1 " "                                " :  1  1       0 "            "   0.00  0       0 "            "   0.00       0 "            "   0.00    2    1 100.000000 0.000000E+000 3.300000E-003 0.000000E+000 0.000000E+000 0.000000E+000 0.000000E+000 /
 138.000000 138.000000  0.000000  0.000000 0.000000E+000 0.000000E+000    0.0    0.0    0.0    0.0 0.000  1.500000  0.510000  1.500000  0.510000 -0.006250  1.040000  1.000000  1.000000  1.000000   400101   391231   0 1     0.0    0.0    0.0    0.0 /
   1 1.000   0 0.000   0 0.000   0 0.000   0 0.000   0 0.000   0 0.000   0 0.000  0 /
   0.000000   0.000000  0.000000  0.000000     0.0    0.0    0.0     0.0    0.0    0.0 0.000 0.000  0  0  0 0.0000 0.0000 0 
     14 "14          " 138.00      41 "41          " 138.00  "1 " "                                " :  1  1       0 "            "   0.00  0       0 "            "   0.00       0 "            "   0.00    3    1 100.000000 0.000000E+000 1.500000E-003 0.000000E+000 0.000000E+000 0.000000E+000 0.000000E+000 /
 138.000000 138.000000  0.000000  0.000000 0.000000E+000 0.000000E+000    0.0    0.0    0.0    0.0 0.000  1.500000  0.510000  1.500000  0.510000 -0.006250  1.000000  1.000000  1.000000  1.000000   400101   391231   0 1     0.0    0.0    0.0    0.0 /
   1 1.000   0 0.000   0 0.000   0 0.000   0 0.000   0 0.000   0 0.000   0 0.000  0 /
   0.000000   0.000000  0.000000  0.000000     0.0    0.0    0.0     0.0    0.0    0.0 0.000 0.000  0  0  0 0.0000 0.0000 0 
     15 "15          " 138.00      42 "42          " 138.00  "1 " "                                " :  1  1       0 "            "   0.00  0       0 "            "   0.00       0 "            "   0.00    4    1 100.000000 0.000000E+000 1.500000E-003 0.000000E+000 0.000000E+000 0.000000E+000 0.000000E+000 /
 138.000000 138.000000  0.000000  0.000000 0.000000E+000 0.000000E+000    0.0    0.0    0.0    0.0 0.000  1.500000  0.510000  1.500000  0.510000 -0.006250  1.000000  1.000000  1.000000  1.000000   400101   391231   0 1     0.0    0.0    0.0    0.0 /
   1 1.000   0 0.000   0 0.000   0 0.000   0 0.000   0 0.000   0 0.000   0 0.000  0 /
   0.000000   0.000000  0.000000  0.000000     0.0    0.0    0.0     0.0    0.0    0.0 0.000 0.000  0  0  0 0.0000 0.0000 0 
     16 "16          " 138.00      18 "18          " 138.00  "1 " "                                " :  1  1       0 "            "   0.00  0       0 "            "   0.00       0 "            "   0.00    5    1 100.000000 0.000000E+000 3.000000E-003 0.000000E+000 0.000000E+000 0.000000E+000 0.000000E+000 /
 138.000000 138.000000  0.000000  0.000000 0.000000E+000 0.000000E+000    0.0    0.0    0.0    0.0 0.000  1.500000  0.510000  1.500000  0.510000 -0.006250  1.000000  1.000000  1.000000  1.000000   400101   391231   0 1     0.0    0.0    0.0    0.0 /
   1 1.000   0 0.000   0 0.000   0 0.000   0 0.000   0 0.000   0 0.000   0 0.000  0 /
   0.000000   0.000000  0.000000  0.000000     0.0    0.0    0.0     0.0    0.0    0.0 0.000 0.000  0  0  0 0.0000 0.0000 0 
     20 "20          " 138.00      19 "19          " 138.00  "1 " "                                " :  1  1       0 "            "   0.00  0       0 "            "   0.00       0 "            "   0.00    1    1 100.000000 7.000000E-004 1.380000E-002 0.000000E+000 0.000000E+000 0.000000E+000 0.000000E+000 /
 138.000000 138.000000  0.000000  0.000000 0.000000E+000 0.000000E+000    0.0    0.0    0.0    0.0 0.000  1.500000  0.510000  1.500000  0.510000 -0.006250  1.060000  1.000000  1.000000  1.000000   400101   391231   0 1     0.0    0.0    0.0    0.0 /
   1 1.000   0 0.000   0 0.000   0 0.000   0 0.000   0 0.000   0 0.000   0 0.000  0 /
   0.000000   0.000000  0.000000  0.000000     0.0    0.0    0.0     0.0    0.0    0.0 0.000 0.000  0  0  0 0.0000 0.0000 0 
     34 "34          " 138.00      35 "35          " 138.00  "1 " "                                " :  1  1       0 "            "   0.00  0       0 "            "   0.00       0 "            "   0.00    2    1 100.000000 1.000000E-004 7.400000E-003 0.000000E+000 0.000000E+000 0.000000E+000 0.000000E+000 /
 138.000000 138.000000  0.000000  0.000000 0.000000E+000 0.000000E+000    0.0    0.0    0.0    0.0 0.000  1.500000  0.510000  1.500000  0.510000 -0.006250  0.946000  1.000000  1.000000  1.000000   400101   391231   0 1     0.0    0.0    0.0    0.0 /
   1 1.000   0 0.000   0 0.000   0 0.000   0 0.000   0 0.000   0 0.000   0 0.000  0 /
   0.000000   0.000000  0.000000  0.000000     0.0    0.0    0.0     0.0    0.0    0.0 0.000 0.000  0  0  0 0.0000 0.0000 0 
     63 "63          " 138.00      64 "64          " 138.00  "1 " "                                " :  1  1       0 "            "   0.00  0       0 "            "   0.00       0 "            "   0.00    1    1 100.000000 1.600000E-003 4.350000E-002 0.000000E+000 0.000000E+000 0.000000E+000 0.000000E+000 /
 138.000000 138.000000  0.000000  0.000000 0.000000E+000 0.000000E+000    0.0    0.0    0.0    0.0 0.000  1.500000  0.510000  1.500000  0.510000 -0.006250  1.060000  1.000000  1.000000  1.000000   400101   391231   0 1     0.0    0.0    0.0    0.0 /
   1 1.000   0 0.000   0 0.000   0 0.000   0 0.000   0 0.000   0 0.000   0 0.000  0 /
   0.000000   0.000000  0.000000  0.000000     0.0    0.0    0.0     0.0    0.0    0.0 0.000 0.000  0  0  0 0.0000 0.0000 0 
     65 "65          " 138.00      64 "64          " 138.00  "1 " "                                " :  1  1       0 "            "   0.00  0       0 "            "   0.00       0 "            "   0.00    1    1 100.000000 1.600000E-003 4.350000E-002 0.000000E+000 0.000000E+000 0.000000E+000 0.000000E+000 /
 138.000000 138.000000  0.000000  0.000000 0.000000E+000 0.000000E+000    0.0    0.0    0.0    0.0 0.000  1.500000  0.510000  1.500000  0.510000 -0.006250  1.060000  1.000000  1.000000  1.000000   400101   391231   0 1     0.0    0.0    0.0    0.0 /
   1 1.000   0 0.000   0 0.000   0 0.000   0 0.000   0 0.000   0 0.000   0 0.000  0 /
   0.000000   0.000000  0.000000  0.000000     0.0    0.0    0.0     0.0    0.0    0.0 0.000 0.000  0  0  0 0.0000 0.0000 0 
generator data  [  16]         id   ------------long_id_------------    st ---no--     reg_name           prf  qrf  ar zone   pgen   pmax   pmin   qgen   qmax   qmin   mbase  cmp_r cmp_x gen_r gen_x           hbus                         tbus                date_in date_out pid N
      1 "1           " 138.00 "1 " "                                " :  1       1 "1           " 138.00  1.000000  1.000000   1    1 250.000000 9998.999786   0.000000 196.005058 9900.000000 -9900.000000 200.0000 0.000 0.000 0.000 0.050      -1 "            "   0.00      -1 "            "   0.00    400101   391231   0 0 /
 0.0000 0.0000 1.0000    1 1.000   0 0.000   0 0.000   0 0.000   0 0.000   0 0.000   0 0.000   0 0.000   0   0   0   0   0   0   0    0.0 0 0  1.000000
      2 "2           " 138.00 "1 " "                                " :  1       2 "2           " 138.00  1.000000  1.000000   1    1 544.999981 9998.999786   0.000000 70.011210 9900.000000 -9900.000000 200.0000 0.000 0.000 0.000 0.100      -1 "            "   0.00      -1 "            "   0.00    400101   391231   0 0 /
 0.0000 0.0000 1.0000    1 1.000   0 0.000   0 0.000   0 0.000   0 0.000   0 0.000   0 0.000   0 0.000   0   0   0   0   0   0   0    0.0 0 0  1.000000
      3 "3           " 138.00 "1 " "                                " :  1       3 "3           " 138.00  1.000000  1.000000   1    1 650.000000 9998.999786   0.000000 80.782872 9900.000000 -9900.000000 200.0000 0.000 0.000 0.000 0.090      -1 "            "   0.00      -1 "            "   0.00    400101   391231   0 0 /
 0.0000 0.0000 1.0000    1 1.000   0 0.000   0 0.000   0 0.000   0 0.000   0 0.000   0 0.000   0 0.000   0   0   0   0   0   0   0    0.0 0 0  1.000000
      4 "4           " 138.00 "1 " "                                " :  1       4 "4           " 138.00  1.000000  1.000000   1    1 632.000017 9998.999786   0.000000  0.268543 9900.000000 -9900.000000 200.0000 0.000 0.000 0.000 0.070      -1 "            "   0.00      -1 "            "   0.00    400101   391231   0 0 /
 0.0000 0.0000 1.0000    1 1.000   0 0.000   0 0.000   0 0.000   0 0.000   0 0.000   0 0.000   0 0.000   0   0   0   0   0   0   0    0.0 0 0  1.000000
      5 "5           " 138.00 "1 " "                                " :  1       5 "5           " 138.00  1.000000  1.000000   1    1 505.000019 9998.999786   0.000000 116.574097 9900.000000 -9900.000000 200.0000 0.000 0.000 0.000 0.100      -1 "            "   0.00      -1 "            "   0.00    400101   391231   0 0 /
 0.0000 0.0000 1.0000    1 1.000   0 0.000   0 0.000   0 0.000   0 0.000   0 0.000   0 0.000   0 0.000   0   0   0   0   0   0   0    0.0 0 0  1.000000
      6 "6           " 138.00 "1 " "                                " :  1       6 "6           " 138.00  1.000000  1.000000   1    1 700.000000 9998.999786   0.000000 254.486871 9900.000000 -9900.000000 200.0000 0.000 0.000 0.000 0.080      -1 "            "   0.00      -1 "            "   0.00    400101   391231   0 0 /
 0.0000 0.0000 1.0000    1 1.000   0 0.000   0 0.000   0 0.000   0 0.000   0 0.000   0 0.000   0 0.000   0   0   0   0   0   0   0    0.0 0 0  1.000000
      7 "7           " 138.00 "1 " "                                " :  1       7 "7           " 138.00  1.000000  1.000000   1    1 559.999990 9998.999786   0.000000 290.833402 9900.000000 -9900.000000 200.0000 0.000 0.000 0.000 0.080      -1 "            "   0.00      -1 "            "   0.00    400101   391231   0 0 /
 0.0000 0.0000 1.0000    1 1.000   0 0.000   0 0.000   0 0.000   0 0.000   0 0.000   0 0.000   0 0.000   0   0   0   0   0   0   0    0.0 0 0  1.000000
      8 "8           " 138.00 "1 " "                                " :  1       8 "8           " 138.00  1.000000  1.000000   1    1 540.000010 9998.999786   0.000000 49.076545 9900.000000 -9900.000000 200.0000 0.000 0.000 0.000 0.090      -1 "            "   0.00      -1 "            "   0.00    400101   391231   0 0 /
 0.0000 0.0000 1.0000    1 1.000   0 0.000   0 0.000   0 0.000   0 0.000   0 0.000   0 0.000   0 0.000   0   0   0   0   0   0   0    0.0 0 0  1.000000
      9 "9           " 138.00 "1 " "                                " :  1       9 "9           " 138.00  1.000000  1.000000   1    1 800.000000 9998.999786   0.000000 59.807885 9900.000000 -9900.000000 200.0000 0.000 0.000 0.000 0.090      -1 "            "   0.00      -1 "            "   0.00    400101   391231   0 0 /
 0.0000 0.0000 1.0000    1 1.000   0 0.000   0 0.000   0 0.000   0 0.000   0 0.000   0 0.000   0 0.000   0   0   0   0   0   0   0    0.0 0 0  1.000000
     10 "10          " 138.00 "1 " "                                " :  1      10 "10          " 138.00  1.000000  1.000000   2    1 500.000000 9998.999786   0.000000 -13.099691 9900.000000 -9900.000000 200.0000 0.000 0.000 0.000 0.080      -1 "            "   0.00      -1 "            "   0.00    400101   391231   0 0 /
 0.0000 0.0000 1.0000    1 1.000   0 0.000   0 0.000   0 0.000   0 0.000   0 0.000   0 0.000   0 0.000   0   0   0   0   0   0   0    0.0 0 0  1.000000
     11 "11          " 138.00 "1 " "                                " :  1      11 "11          " 138.00  1.000000  1.000000   2    1 1000.000000 9998.999786   0.000000  8.327110 9900.000000 -9900.000000 600.0000 0.000 0.000 0.000 0.072      -1 "            "   0.00      -1 "            "   0.00    400101   391231   0 0 /
 0.0000 0.0000 1.0000    1 1.000   0 0.000   0 0.000   0 0.000   0 0.000   0 0.000   0 0.000   0 0.000   0   0   0   0   0   0   0    0.0 0 0  1.000000
     12 "12          " 138.00 "1 " "                                " :  1      12 "12          " 138.00  1.000000  1.000000   2    1 1350.000000 9998.999786   0.000000 280.072308 9900.000000 -9900.000000 200.0000 0.000 0.000 0.000 0.050      -1 "            "   0.00      -1 "            "   0.00    400101   391231   0 0 /
 0.0000 0.0000 1.0000    1 1.000   0 0.000   0 0.000   0 0.000   0 0.000   0 0.000   0 0.000   0 0.000   0   0   0   0   0   0   0    0.0 0 0  1.000000
     13 "13          " 138.00 "1 " "                                " :  1      13 "13          " 138.00  1.000000  1.000000   2    1 3590.999985 9998.999786   0.000000 885.024643 9900.000000 -9900.000000 6000.0000 0.000 0.000 0.000 0.120      -1 "            "   0.00      -1 "            "   0.00    400101   391231   0 0 /
 0.0000 0.0000 1.0000    1 1.000   0 0.000   0 0.000   0 0.000   0 0.000   0 0.000   0 0.000   0 0.000   0   0   0   0   0   0   0    0.0 0 0  1.000000
     14 "14          " 138.00 "1 " "                                " :  1      14 "14          " 138.00  1.000000  1.000000   3    1 1785.000038 9998.999786   0.000000 47.484729 9900.000000 -9900.000000 3000.0000 0.000 0.000 0.000 0.069      -1 "            "   0.00      -1 "            "   0.00    400101   391231   0 0 /
 0.0000 0.0000 1.0000    1 1.000   0 0.000   0 0.000   0 0.000   0 0.000   0 0.000   0 0.000   0 0.000   0   0   0   0   0   0   0    0.0 0 0  1.000000
     15 "15          " 138.00 "1 " "                                " :  1      15 "15          " 138.00  1.000000  1.000000   4    1 1000.000000 9998.999786   0.000000 76.732361 9900.000000 -9900.000000 3000.0000 0.000 0.000 0.000 0.069      -1 "            "   0.00      -1 "            "   0.00    400101   391231   0 0 /
 0.0000 0.0000 1.0000    1 1.000   0 0.000   0 0.000   0 0.000   0 0.000   0 0.000   0 0.000   0 0.000   0   0   0   0   0   0   0    0.0 0 0  1.000000
     16 "16          " 138.00 "1 " "                                " :  1      16 "16          " 138.00  1.000000  1.000000   5    1 3379.568100 9998.999786   0.000000 93.655056 9900.000000 -9900.000000 6000.0000 0.000 0.000 0.000 0.165      -1 "            "   0.00      -1 "            "   0.00    400101   391231   0 0 /
 0.0000 0.0000 1.0000    1 1.000   0 0.000   0 0.000   0 0.000   0 0.000   0 0.000   0 0.000   0 0.000   0   0   0   0   0   0   0    0.0 0 0  1.000000
load data  [  36]             id   ------------long_id_------------     st      mw      mvar    mw_i    mvar_i  mw_z      mvar_z  ar zone  date_in date_out pid N own M nonc  thr_bus flg
      3 "3           " 138.00 "1 " "                                "  :  0 0.000000 50.000000 0.000000 0.000000 0.000000 0.000000   1    1   400101   391231   0 0   1 0    0       0 "            "   0.00   0
     17 "17          " 138.00 "1 " "                                "  :  1 6000.000000 300.000000 0.000000 0.000000 0.000000 0.000000   2    1   400101   391231   0 0   1 0    0       0 "            "   0.00   0
     18 "18          " 138.00 "2 " "                                "  :  1 2470.000076 123.000002 0.000000 0.000000 0.000000 0.000000   5    1   400101   391231   0 0   1 0    0       0 "            "   0.00   0
     20 "20          " 138.00 "3 " "                                "  :  1 680.000019 102.999997 0.000000 0.000000 0.000000 0.000000   1    1   400101   391231   0 0   1 0    0       0 "            "   0.00   0
     21 "21          " 138.00 "4 " "                                "  :  1 274.000001 114.999998 0.000000 0.000000 0.000000 0.000000   1    1   400101   391231   0 0   1 0    0       0 "            "   0.00   0
...